<configuration>
    <input>
        <net-file value="ntpn.net.xml"/>
        <route-files value="ntpn.rou.xml"/>
    </input>
    <time>
        <begin value="0"/>
        <end value="9000"/>
    </time>
</configuration>